sectionalized/no_load/40pc/TNB_DUMA_VLN.Txt

SYMMETRICAL COMPONENT VOLTAGES BY BUS (for 3-phase buses)

Bus               Mag:   V1 (kV)    p.u.     V2 (kV)   %V2/V1    V0 (kV)    %V0/V1

ppu_duma_33kv        19.14      1.004  9.316E-009  4.868E-008 1.239E-009 6.476E-009
ppu_duma_11kv_a      6.385      1.005  3.307E-009  5.179E-008 2.834E-011 4.439E-010
ppu_duma_11kv_b      6.371      1.003  3.301E-009  5.181E-008 4.885E-011 7.667E-010
rpplngi2             6.436      1.013  3.33E-009  5.175E-008 5.003E-011 7.773E-010
pdtjlnmasjid         6.485      1.021  3.353E-009  5.17E-008 5.121E-011 7.897E-010
bella                6.518      1.026  3.367E-009  5.167E-008 5.213E-011 7.998E-010
pstpdgn              6.534      1.029  3.375E-009  5.165E-008 5.262E-011 8.054E-010
atria_1              6.459      1.017  3.341E-009  5.172E-008 5.056E-011 7.827E-010
hawker               6.475      1.019  3.348E-009  5.171E-008 6.402E-011 9.888E-010
duma7                6.395      1.007  3.312E-009  5.178E-008 4.976E-011 7.781E-010
haus                 6.444      1.015  3.333E-009  5.173E-008 9.939E-011 1.542E-009
duma6                6.575      1.035  3.391E-009  5.157E-008 3.341E-010 5.081E-009
duma13               6.694      1.054  3.443E-009  5.143E-008 5.766E-010 8.614E-009
ssu_duma5_im2         6.71      1.057  3.45E-009  5.141E-008 5.797E-010 8.639E-009
pdtlitrak            6.529      1.028  3.373E-009  5.167E-008 5.287E-011 8.097E-010
duma12               6.592      1.038  3.403E-009  5.162E-008 5.511E-011 8.36E-010
tmngh4               6.652      1.047  3.43E-009  5.157E-008 8.415E-011 1.265E-009
ssu_tmegah3_ir1      6.676      1.051  3.442E-009  5.155E-008 9.936E-011 1.488E-009
tmngh2               6.687      1.053  3.446E-009  5.154E-008 1.063E-010 1.589E-009
ssu_uptwres_im2      6.396      1.007  3.312E-009  5.179E-008 5.403E-011 8.448E-010
maybank              6.429      1.012  3.327E-009  5.176E-008 5.542E-011 8.62E-010
duma8                6.435      1.013  3.33E-009  5.175E-008 5.776E-011 8.976E-010
duma9                6.483      1.021  3.352E-009  5.17E-008 5.12E-011 7.898E-010
duma1                6.528      1.028  3.372E-009  5.166E-008 5.25E-011 8.043E-010
elite                6.545       1.03  3.38E-009  5.164E-008 5.302E-011 8.101E-010
pamdra               6.391      1.006  3.31E-009  5.178E-008 2.845E-011 4.451E-010
duma4                6.414       1.01  3.32E-009  5.176E-008 3.713E-011 5.789E-010
plsdra               6.463      1.018  3.343E-009  5.172E-008 6.846E-011 1.059E-009
prmte                6.444      1.015  3.334E-009  5.174E-008 5.98E-011 9.28E-010
prmta                6.454      1.016  3.338E-009  5.173E-008 6.049E-011 9.373E-010
pmontb               6.462      1.017  3.342E-009  5.172E-008 6.589E-011 1.02E-009
plngi_b              6.418      1.011  3.322E-009  5.176E-008 2.897E-011 4.513E-010
plngi_d              6.434      1.013  3.329E-009  5.174E-008 2.935E-011 4.562E-010
sprk9                 6.53      1.028  3.373E-009  5.165E-008 3.265E-011    5E-010
bomba                6.538      1.029  3.376E-009  5.164E-008 3.565E-011 5.453E-010
sprk8                6.558      1.033  3.386E-009  5.162E-008 4.604E-011 7.02E-010
ssu_dsarcntr_ir1     6.401      1.008  3.314E-009  5.177E-008 2.862E-011 4.471E-010
duma10               6.463      1.018  3.342E-009  5.171E-008 3.02E-011 4.672E-010
balaipolis           6.464      1.018  3.343E-009  5.171E-008 3.022E-011 4.675E-010
ssu_uptwres_ir1      6.471      1.019  3.346E-009  5.171E-008 6.905E-011 1.067E-009
ppu_duma_vcb1            0          0          0          0         0         0
